Version 4.1
SHEET 1 8152 3604
WIRE -592 -384 -656 -384
WIRE -384 -384 -528 -384
WIRE 1008 -368 880 -368
WIRE 1184 -368 1088 -368
WIRE -656 -288 -656 -384
WIRE -592 -288 -656 -288
WIRE -384 -288 -384 -384
WIRE -384 -288 -512 -288
WIRE -224 -288 -256 -288
WIRE -96 -288 -96 -352
WIRE -96 -288 -160 -288
WIRE -32 -288 -96 -288
WIRE 64 -288 32 -288
WIRE -256 -256 -256 -288
WIRE 64 -256 64 -288
WIRE 1040 -192 1040 -240
WIRE -96 -176 -96 -288
WIRE 736 -176 624 -176
WIRE 880 -176 880 -368
WIRE 880 -176 816 -176
WIRE 1024 -176 880 -176
WIRE -512 -160 -512 -192
WIRE -112 -160 -176 -160
WIRE 1184 -160 1184 -368
WIRE 1184 -160 1088 -160
WIRE 1232 -160 1184 -160
WIRE -880 -144 -960 -144
WIRE -752 -144 -816 -144
WIRE -656 -144 -656 -288
WIRE -656 -144 -672 -144
WIRE -544 -144 -656 -144
WIRE 160 -144 -48 -144
WIRE 304 -144 160 -144
WIRE 1024 -144 944 -144
WIRE -384 -128 -384 -288
WIRE -384 -128 -480 -128
WIRE -112 -128 -384 -128
WIRE -544 -112 -608 -112
WIRE 160 -96 160 -144
WIRE -96 -64 -96 -112
WIRE 1040 -64 1040 -128
WIRE -688 -48 -688 -64
WIRE -512 -32 -512 -96
WIRE -176 16 -176 -160
WIRE 160 16 160 -16
WIRE 160 16 -176 16
WIRE -688 48 -688 32
WIRE -688 48 -800 48
WIRE -608 48 -608 -112
WIRE -608 48 -688 48
WIRE 944 64 944 -144
WIRE -688 80 -688 48
WIRE -608 80 -608 48
WIRE -800 96 -800 48
WIRE 160 96 160 16
WIRE -800 192 -800 160
WIRE -688 192 -688 160
WIRE -608 192 -608 144
WIRE 160 224 160 176
WIRE 1488 304 1376 304
WIRE 1664 304 1552 304
WIRE 1888 304 1664 304
WIRE 2160 304 2096 304
WIRE 2288 304 2224 304
WIRE 2544 304 2288 304
WIRE 960 320 896 320
WIRE 1072 320 1024 320
WIRE 2864 320 2800 320
WIRE 2992 320 2928 320
WIRE 3248 320 2992 320
WIRE 160 352 160 288
WIRE 896 352 896 320
WIRE 1664 352 1664 304
WIRE 2288 352 2288 304
WIRE 2992 368 2992 320
WIRE 1072 384 1072 320
WIRE 1072 384 960 384
WIRE 1168 384 1072 384
WIRE 960 480 960 384
WIRE 1008 480 960 480
WIRE 1728 480 1728 448
WIRE 1168 496 1168 384
WIRE 1168 496 1072 496
WIRE 1216 496 1168 496
WIRE 1376 496 1376 304
WIRE 1376 496 1296 496
WIRE 1488 496 1376 496
WIRE 1664 496 1664 432
WIRE 1664 496 1552 496
WIRE 1712 496 1664 496
WIRE 2384 496 2384 448
WIRE 4048 496 4048 464
WIRE 1008 512 928 512
WIRE 1888 512 1888 304
WIRE 1888 512 1776 512
WIRE 1936 512 1888 512
WIRE 2096 512 2096 304
WIRE 2096 512 2016 512
WIRE 2160 512 2096 512
WIRE 2288 512 2288 432
WIRE 2288 512 2224 512
WIRE 2368 512 2288 512
WIRE 3088 512 3088 464
WIRE 3984 512 3984 464
WIRE 4016 512 3984 512
WIRE 1712 528 1664 528
WIRE 2544 528 2544 304
WIRE 2544 528 2432 528
WIRE 2640 528 2544 528
WIRE 2800 528 2800 320
WIRE 2800 528 2720 528
WIRE 2864 528 2800 528
WIRE 2992 528 2992 448
WIRE 2992 528 2928 528
WIRE 3072 528 2992 528
WIRE 4160 528 4080 528
WIRE 4208 528 4160 528
WIRE 2368 544 2304 544
WIRE 3248 544 3248 320
WIRE 3248 544 3136 544
WIRE 3296 544 3248 544
WIRE 3344 544 3296 544
WIRE 3520 544 3408 544
WIRE 3616 544 3520 544
WIRE 3808 544 3616 544
WIRE 3952 544 3888 544
WIRE 3984 544 3952 544
WIRE 4016 544 3984 544
WIRE 1024 560 1024 528
WIRE 3072 560 3008 560
WIRE 1760 576 1760 544
WIRE 2544 576 2544 528
WIRE 1376 592 1376 496
WIRE 1664 592 1664 528
WIRE 2416 592 2416 560
WIRE 3248 592 3248 544
WIRE 3520 592 3520 544
WIRE 3616 592 3616 544
WIRE 3984 592 3984 544
WIRE 4048 592 4048 560
WIRE 2096 608 2096 512
WIRE 2384 608 2384 560
WIRE 3120 608 3120 576
WIRE 1728 624 1728 544
WIRE 2800 624 2800 528
WIRE 3088 624 3088 576
WIRE -160 672 -256 672
WIRE 0 672 -80 672
WIRE 2304 688 2304 544
WIRE 2544 688 2544 656
WIRE 2544 688 2304 688
WIRE 3952 688 3952 544
WIRE 4016 688 3952 688
WIRE 4160 688 4160 528
WIRE 4160 688 4096 688
WIRE 3008 704 3008 560
WIRE 3248 704 3248 672
WIRE 3248 704 3008 704
WIRE -384 720 -384 672
WIRE 2544 720 2544 688
WIRE -992 736 -992 688
WIRE -864 736 -864 688
WIRE 1376 736 1376 672
WIRE 3248 736 3248 704
WIRE 3520 752 3520 656
WIRE 3616 752 3616 672
WIRE 2096 768 2096 688
WIRE 2800 784 2800 704
WIRE -128 832 -128 768
WIRE 2544 832 2544 800
WIRE -256 848 -256 672
WIRE -160 848 -256 848
WIRE 3248 848 3248 816
WIRE 0 864 0 672
WIRE 0 864 -96 864
WIRE 48 864 0 864
WIRE 160 864 48 864
WIRE 304 864 160 864
WIRE -992 880 -992 816
WIRE -960 880 -992 880
WIRE -864 880 -864 816
WIRE -832 880 -864 880
WIRE -624 880 -720 880
WIRE -384 880 -384 800
WIRE -384 880 -624 880
WIRE -160 880 -384 880
WIRE -1360 896 -1376 896
WIRE -1088 896 -1136 896
WIRE -384 928 -384 880
WIRE 48 928 48 864
WIRE 160 928 160 864
WIRE -1376 944 -1376 896
WIRE -992 944 -992 880
WIRE -864 944 -864 880
WIRE -720 944 -720 880
WIRE -624 944 -624 880
WIRE -1136 960 -1136 896
WIRE -128 960 -128 896
WIRE -1376 1072 -1376 1024
WIRE 48 1072 48 992
WIRE 160 1072 160 992
WIRE 1488 1072 1376 1072
WIRE 1664 1072 1552 1072
WIRE 1888 1072 1664 1072
WIRE 2160 1072 2096 1072
WIRE 2288 1072 2224 1072
WIRE 2544 1072 2288 1072
WIRE -1136 1088 -1136 1040
WIRE -720 1088 -720 1008
WIRE -624 1088 -624 1008
WIRE -384 1088 -384 1008
WIRE 960 1088 896 1088
WIRE 1072 1088 1024 1088
WIRE 2864 1088 2800 1088
WIRE 2992 1088 2928 1088
WIRE 3248 1088 2992 1088
WIRE -992 1104 -992 1024
WIRE -864 1104 -864 1024
WIRE 896 1120 896 1088
WIRE 1664 1120 1664 1072
WIRE 2288 1120 2288 1072
WIRE 2992 1136 2992 1088
WIRE 1072 1152 1072 1088
WIRE 1072 1152 960 1152
WIRE 1168 1152 1072 1152
WIRE 960 1248 960 1152
WIRE 1008 1248 960 1248
WIRE 1728 1248 1728 1216
WIRE 1168 1264 1168 1152
WIRE 1168 1264 1072 1264
WIRE 1216 1264 1168 1264
WIRE 1376 1264 1376 1072
WIRE 1376 1264 1296 1264
WIRE 1488 1264 1376 1264
WIRE 1664 1264 1664 1200
WIRE 1664 1264 1552 1264
WIRE 1712 1264 1664 1264
WIRE 2384 1264 2384 1216
WIRE 4080 1264 4080 1232
WIRE 1008 1280 928 1280
WIRE 1888 1280 1888 1072
WIRE 1888 1280 1776 1280
WIRE 1936 1280 1888 1280
WIRE 2096 1280 2096 1072
WIRE 2096 1280 2016 1280
WIRE 2160 1280 2096 1280
WIRE 2288 1280 2288 1200
WIRE 2288 1280 2224 1280
WIRE 2368 1280 2288 1280
WIRE 3088 1280 3088 1232
WIRE 4016 1280 4016 1232
WIRE 4048 1280 4016 1280
WIRE 1712 1296 1664 1296
WIRE 2544 1296 2544 1072
WIRE 2544 1296 2432 1296
WIRE 2640 1296 2544 1296
WIRE 2800 1296 2800 1088
WIRE 2800 1296 2720 1296
WIRE 2864 1296 2800 1296
WIRE 2992 1296 2992 1216
WIRE 2992 1296 2928 1296
WIRE 3072 1296 2992 1296
WIRE 4192 1296 4112 1296
WIRE 4240 1296 4192 1296
WIRE 2368 1312 2304 1312
WIRE 3248 1312 3248 1088
WIRE 3248 1312 3136 1312
WIRE 3312 1312 3248 1312
WIRE 3376 1312 3312 1312
WIRE 3552 1312 3440 1312
WIRE 3664 1312 3552 1312
WIRE 3744 1312 3664 1312
WIRE 3840 1312 3744 1312
WIRE 3984 1312 3920 1312
WIRE 4016 1312 3984 1312
WIRE 4048 1312 4016 1312
WIRE 1024 1328 1024 1296
WIRE 2544 1328 2544 1296
WIRE 3072 1328 3008 1328
WIRE 1760 1344 1760 1312
WIRE 3248 1344 3248 1312
WIRE 1376 1360 1376 1264
WIRE 1664 1360 1664 1296
WIRE 2416 1360 2416 1328
WIRE 3552 1360 3552 1312
WIRE 3664 1360 3664 1312
WIRE 4016 1360 4016 1312
WIRE 4080 1360 4080 1328
WIRE 2096 1376 2096 1280
WIRE 2384 1376 2384 1328
WIRE 3120 1376 3120 1344
WIRE 1728 1392 1728 1312
WIRE 2800 1392 2800 1296
WIRE 3088 1392 3088 1344
WIRE 2304 1440 2304 1312
WIRE 2544 1440 2544 1408
WIRE 2544 1440 2304 1440
WIRE 3008 1456 3008 1328
WIRE 3248 1456 3248 1424
WIRE 3248 1456 3008 1456
WIRE 3984 1456 3984 1312
WIRE 4048 1456 3984 1456
WIRE 4192 1456 4192 1296
WIRE 4192 1456 4128 1456
WIRE 2544 1472 2544 1440
WIRE 3248 1488 3248 1456
WIRE 1376 1504 1376 1440
WIRE 3552 1520 3552 1424
WIRE 3664 1520 3664 1440
WIRE 2096 1536 2096 1456
WIRE 2800 1552 2800 1472
WIRE 2544 1584 2544 1552
WIRE 3248 1600 3248 1568
WIRE 1488 1856 1376 1856
WIRE 1664 1856 1552 1856
WIRE 1888 1856 1664 1856
WIRE 2160 1856 2096 1856
WIRE 2288 1856 2224 1856
WIRE 2544 1856 2288 1856
WIRE 960 1872 896 1872
WIRE 1072 1872 1024 1872
WIRE 2864 1872 2800 1872
WIRE 2992 1872 2928 1872
WIRE 3248 1872 2992 1872
WIRE 896 1904 896 1872
WIRE 1664 1904 1664 1856
WIRE 2288 1904 2288 1856
WIRE 2992 1920 2992 1872
WIRE 1072 1936 1072 1872
WIRE 1072 1936 960 1936
WIRE 1168 1936 1072 1936
WIRE 960 2032 960 1936
WIRE 1008 2032 960 2032
WIRE 1728 2032 1728 2000
WIRE 1168 2048 1168 1936
WIRE 1168 2048 1072 2048
WIRE 1216 2048 1168 2048
WIRE 1376 2048 1376 1856
WIRE 1376 2048 1296 2048
WIRE 1488 2048 1376 2048
WIRE 1664 2048 1664 1984
WIRE 1664 2048 1552 2048
WIRE 1712 2048 1664 2048
WIRE 2384 2048 2384 2000
WIRE 4080 2048 4080 2016
WIRE 1008 2064 736 2064
WIRE 1888 2064 1888 1856
WIRE 1888 2064 1776 2064
WIRE 1936 2064 1888 2064
WIRE 2096 2064 2096 1856
WIRE 2096 2064 2016 2064
WIRE 2160 2064 2096 2064
WIRE 2288 2064 2288 1984
WIRE 2288 2064 2224 2064
WIRE 2368 2064 2288 2064
WIRE 3088 2064 3088 2016
WIRE 4016 2064 4016 2016
WIRE 4048 2064 4016 2064
WIRE 1712 2080 1664 2080
WIRE 2544 2080 2544 1856
WIRE 2544 2080 2432 2080
WIRE 2640 2080 2544 2080
WIRE 2800 2080 2800 1872
WIRE 2800 2080 2720 2080
WIRE 2864 2080 2800 2080
WIRE 2992 2080 2992 2000
WIRE 2992 2080 2928 2080
WIRE 3072 2080 2992 2080
WIRE 4192 2080 4112 2080
WIRE 4240 2080 4192 2080
WIRE 2368 2096 2304 2096
WIRE 3248 2096 3248 1872
WIRE 3248 2096 3136 2096
WIRE 3312 2096 3248 2096
WIRE 3376 2096 3312 2096
WIRE 3552 2096 3440 2096
WIRE 3664 2096 3552 2096
WIRE 3744 2096 3664 2096
WIRE 3840 2096 3744 2096
WIRE 3984 2096 3920 2096
WIRE 4016 2096 3984 2096
WIRE 4048 2096 4016 2096
WIRE 1024 2112 1024 2080
WIRE 3072 2112 3008 2112
WIRE 1760 2128 1760 2096
WIRE 1376 2144 1376 2048
WIRE 1664 2144 1664 2080
WIRE 2416 2144 2416 2112
WIRE 3552 2144 3552 2096
WIRE 3664 2144 3664 2096
WIRE 4016 2144 4016 2096
WIRE 4080 2144 4080 2112
WIRE 2096 2160 2096 2064
WIRE 2384 2160 2384 2112
WIRE 3120 2160 3120 2128
WIRE 1728 2176 1728 2096
WIRE 2800 2176 2800 2080
WIRE 3088 2176 3088 2128
WIRE 2304 2224 2304 2096
WIRE 3008 2240 3008 2112
WIRE 3984 2240 3984 2096
WIRE 4048 2240 3984 2240
WIRE 4192 2240 4192 2080
WIRE 4192 2240 4128 2240
WIRE 1376 2288 1376 2224
WIRE 3552 2304 3552 2208
WIRE 3664 2304 3664 2224
WIRE 2096 2320 2096 2240
WIRE 2800 2336 2800 2256
WIRE 2080 2624 1744 2624
WIRE 2256 2624 2144 2624
WIRE 1168 2672 960 2672
WIRE 1520 2672 1328 2672
WIRE 2256 2688 2256 2624
WIRE 2256 2688 2048 2688
WIRE 1328 2736 1328 2672
WIRE 1376 2736 1328 2736
WIRE 960 2752 960 2672
WIRE 1008 2752 960 2752
WIRE 1520 2752 1520 2672
WIRE 1520 2752 1440 2752
WIRE 1600 2752 1520 2752
WIRE 1744 2752 1744 2624
WIRE 1744 2752 1680 2752
WIRE 1808 2752 1744 2752
WIRE 1968 2752 1888 2752
WIRE 2016 2752 1968 2752
WIRE 2048 2752 2048 2688
WIRE 2080 2752 2048 2752
WIRE 1168 2768 1168 2672
WIRE 1168 2768 1072 2768
WIRE 1200 2768 1168 2768
WIRE 1328 2768 1280 2768
WIRE 1376 2768 1328 2768
WIRE 2256 2768 2256 2688
WIRE 2256 2768 2144 2768
WIRE 2304 2768 2256 2768
WIRE 1008 2784 768 2784
WIRE 2016 2784 2016 2752
WIRE 2080 2784 2016 2784
WIRE 1328 2832 1328 2768
WIRE 1968 2832 1968 2752
WIRE 1328 2928 1328 2896
WIRE 1968 2928 1968 2896
WIRE 768 2960 768 2912
WIRE 2080 3184 1744 3184
WIRE 2256 3184 2144 3184
WIRE 1168 3232 960 3232
WIRE 1520 3232 1328 3232
WIRE 2256 3248 2256 3184
WIRE 2256 3248 2048 3248
WIRE 1328 3296 1328 3232
WIRE 1376 3296 1328 3296
WIRE 960 3312 960 3232
WIRE 1008 3312 960 3312
WIRE 1520 3312 1520 3232
WIRE 1520 3312 1440 3312
WIRE 1600 3312 1520 3312
WIRE 1744 3312 1744 3184
WIRE 1744 3312 1680 3312
WIRE 1808 3312 1744 3312
WIRE 1968 3312 1888 3312
WIRE 2016 3312 1968 3312
WIRE 2048 3312 2048 3248
WIRE 2080 3312 2048 3312
WIRE 1168 3328 1168 3232
WIRE 1168 3328 1072 3328
WIRE 1200 3328 1168 3328
WIRE 1328 3328 1280 3328
WIRE 1376 3328 1328 3328
WIRE 2256 3328 2256 3248
WIRE 2256 3328 2144 3328
WIRE 2304 3328 2256 3328
WIRE 1008 3344 768 3344
WIRE 2016 3344 2016 3312
WIRE 2080 3344 2016 3344
WIRE 1328 3392 1328 3328
WIRE 1968 3392 1968 3312
WIRE 1328 3488 1328 3456
WIRE 1968 3488 1968 3456
WIRE 768 3520 768 3472
FLAG 304 -144 VA
FLAG -960 -144 Vin
FLAG 160 352 0
FLAG -512 -192 Vcc
FLAG -688 -64 Vcc
FLAG -688 192 0
FLAG -608 192 0
FLAG -512 -32 0
FLAG -800 192 0
FLAG -96 -64 0
FLAG -64 -112 Vcc
FLAG 1728 1392 0
FLAG 2384 1376 0
FLAG 1728 1216 Vcc
FLAG 2384 1216 Vcc
FLAG 1760 1344 Vcc
FLAG 2416 1360 Vcc
FLAG 2096 1536 Vref
FLAG 1664 1360 Vref
FLAG 1376 1504 Vref
FLAG 3088 1392 0
FLAG 3088 1232 Vcc
FLAG 3120 1376 Vcc
FLAG 2800 1552 Vref
FLAG 3312 1312 Vout2
FLAG 2544 1584 Vref
FLAG 3248 1600 Vref
FLAG -1088 896 Vcc
FLAG -1376 1072 0
FLAG -1136 1088 0
FLAG -128 768 Vcc
FLAG -384 672 Vcc
FLAG -720 1088 0
FLAG -624 1088 0
FLAG -384 1088 0
FLAG 48 1072 0
FLAG 160 1072 0
FLAG -128 960 0
FLAG 304 864 Vref
FLAG -1360 896 Vin
FLAG 3552 1520 0
FLAG 3664 1520 0
FLAG 4080 1360 0
FLAG 4080 1232 Vcc
FLAG 4016 1360 Venv2
FLAG 4240 1296 Comp2out
FLAG 3744 1312 env2_out
FLAG 1728 624 0
FLAG 2384 608 0
FLAG 1728 448 Vcc
FLAG 2384 448 Vcc
FLAG 1760 576 Vcc
FLAG 2416 592 Vcc
FLAG 2544 832 Vref
FLAG 2096 768 Vref
FLAG 1664 592 Vref
FLAG 1376 736 Vref
FLAG 3088 624 0
FLAG 3088 464 Vcc
FLAG 3296 544 Vout
FLAG 3120 608 Vcc
FLAG 3248 848 Vref
FLAG 2800 784 Vref
FLAG 3520 752 0
FLAG 3616 752 0
FLAG 4048 592 0
FLAG 4048 464 Vcc
FLAG 3984 592 Venv1
FLAG 4208 528 Comp1out
FLAG 928 512 VA
FLAG -864 688 Vcc
FLAG -864 1104 0
FLAG -832 880 Cref
FLAG 4016 1232 Cref2
FLAG 3984 464 Cref
FLAG 944 64 Vref
FLAG 1024 560 0
FLAG 1056 528 Vcc
FLAG 1024 464 Vcc
FLAG 896 352 0
FLAG 928 1280 VA
FLAG 944 1424 Vref
FLAG 1024 1328 0
FLAG 1056 1296 Vcc
FLAG 1024 1232 Vcc
FLAG 896 1120 0
FLAG 1040 -64 0
FLAG 1232 -160 ADC_out
FLAG 624 -176 VA
FLAG 1040 -240 Vcc
FLAG 1072 -128 Vcc
FLAG -96 -352 Vcc
FLAG -256 -256 0
FLAG 64 -256 0
FLAG 1728 2176 0
FLAG 2384 2160 0
FLAG 1728 2000 Vcc
FLAG 2384 2000 Vcc
FLAG 1760 2128 Vcc
FLAG 2416 2144 Vcc
FLAG 2096 2320 Vref
FLAG 1664 2144 Vref
FLAG 1376 2288 Vref
FLAG 3088 2176 0
FLAG 3088 2016 Vcc
FLAG 3120 2160 Vcc
FLAG 2800 2336 Vref
FLAG 3312 2096 Vout3
FLAG 3552 2304 0
FLAG 3664 2304 0
FLAG 4080 2144 0
FLAG 4080 2016 Vcc
FLAG 4016 2144 Venv2
FLAG 4240 2080 Comp2out
FLAG 3744 2096 env2_out
FLAG 4016 2016 Cref2
FLAG 944 2208 Vref
FLAG 1024 2112 0
FLAG 1056 2080 Vcc
FLAG 1024 2016 Vcc
FLAG 896 1904 0
FLAG 2304 2224 Vref
FLAG 3008 2240 Vref
FLAG 768 2960 0
FLAG 736 2064 VA
FLAG -992 688 Vcc
FLAG -992 1104 0
FLAG -960 880 Cref2
FLAG 768 2784 VA
FLAG 1024 2736 Vcc
FLAG 1392 2720 Vcc
FLAG 2096 2736 Vcc
FLAG 2128 2800 Vcc
FLAG 1424 2784 Vcc
FLAG 1056 2800 Vcc
FLAG 1024 2800 0
FLAG 1328 2928 0
FLAG 1392 2784 0
FLAG 2096 2800 0
FLAG 1968 2928 0
FLAG 2304 2768 Vout4
FLAG 768 3520 0
FLAG 768 3344 VA
FLAG 1024 3296 Vcc
FLAG 1392 3280 Vcc
FLAG 2096 3296 Vcc
FLAG 2128 3360 Vcc
FLAG 1424 3344 Vcc
FLAG 1056 3360 Vcc
FLAG 1024 3360 0
FLAG 1328 3488 0
FLAG 1392 3344 0
FLAG 2096 3360 0
FLAG 1968 3488 0
FLAG 2304 3328 Vout5
FLAG 832 3264 Vin
SYMBOL res 144 -112 R0
SYMATTR InstName R1
SYMATTR Value 100k
SYMBOL res 144 80 R0
SYMATTR InstName R2
SYMATTR Value 5k
SYMBOL cap -624 80 R0
SYMATTR InstName C1
SYMATTR Value 3.2µ
SYMBOL cap -528 -400 R90
WINDOW 0 0 32 VBottom 2
WINDOW 3 32 32 VTop 2
SYMATTR InstName C2
SYMATTR Value 56p
SYMBOL cap -816 -160 R90
WINDOW 0 0 32 VBottom 2
WINDOW 3 32 32 VTop 2
SYMATTR InstName C3
SYMATTR Value 12.1µ
SYMBOL res -704 -64 R0
SYMATTR InstName R3
SYMATTR Value 100k
SYMBOL res -704 64 R0
SYMATTR InstName R4
SYMATTR Value 100k
SYMBOL res -656 -160 R90
WINDOW 0 0 56 VBottom 2
WINDOW 3 32 56 VTop 2
SYMATTR InstName R5
SYMATTR Value 2.5k
SYMBOL res -496 -304 R90
WINDOW 0 0 56 VBottom 2
WINDOW 3 32 56 VTop 2
SYMATTR InstName R6
SYMATTR Value 100k
SYMBOL cap -816 96 R0
SYMATTR InstName C4
SYMATTR Value 100n
SYMBOL lib\\sym\\OpAmps\\MAX44246 -512 -192 R0
SYMATTR InstName U2
SYMBOL cap 144 224 R0
SYMATTR InstName C5
SYMATTR Value 10µ
SYMBOL lib\\sym\\OpAmps\\MAX9636 -80 -128 R0
SYMATTR InstName U3
SYMBOL lib\\sym\\OpAmps\\MAX9638 1744 1296 R0
SYMATTR InstName U6
SYMBOL lib\\sym\\OpAmps\\MAX9638 2400 1312 R0
SYMATTR InstName U7
SYMBOL cap 1552 1056 R90
WINDOW 0 0 32 VBottom 2
WINDOW 3 32 32 VTop 2
SYMATTR InstName C17
SYMATTR Value 30n
SYMBOL cap 1552 1248 R90
WINDOW 0 0 32 VBottom 2
WINDOW 3 32 32 VTop 2
SYMATTR InstName C18
SYMATTR Value 30n
SYMBOL cap 2224 1056 R90
WINDOW 0 0 32 VBottom 2
WINDOW 3 32 32 VTop 2
SYMATTR InstName C19
SYMATTR Value 30n
SYMBOL cap 2224 1264 R90
WINDOW 0 0 32 VBottom 2
WINDOW 3 32 32 VTop 2
SYMATTR InstName C20
SYMATTR Value 30n
SYMBOL res 1312 1248 R90
WINDOW 0 0 56 VBottom 2
WINDOW 3 32 56 VTop 2
SYMATTR InstName R20
SYMATTR Value 173k
SYMBOL res 2032 1264 R90
WINDOW 0 0 56 VBottom 2
WINDOW 3 32 56 VTop 2
SYMATTR InstName R21
SYMATTR Value 106k
SYMBOL res 1392 1456 R180
WINDOW 0 36 76 Left 2
WINDOW 3 36 40 Left 2
SYMATTR InstName R22
SYMATTR Value 1.42k
SYMBOL res 1680 1216 R180
WINDOW 0 36 76 Left 2
WINDOW 3 36 40 Left 2
SYMATTR InstName R23
SYMATTR Value 346k
SYMBOL res 2112 1472 R180
WINDOW 0 36 76 Left 2
WINDOW 3 36 40 Left 2
SYMATTR InstName R24
SYMATTR Value 2.06k
SYMBOL res 2304 1216 R180
WINDOW 0 36 76 Left 2
WINDOW 3 36 40 Left 2
SYMATTR InstName R25
SYMATTR Value 202k
SYMBOL lib\\sym\\OpAmps\\MAX9638 3104 1328 R0
SYMATTR InstName U8
SYMBOL cap 2928 1072 R90
WINDOW 0 0 32 VBottom 2
WINDOW 3 32 32 VTop 2
SYMATTR InstName C21
SYMATTR Value 30n
SYMBOL cap 2928 1280 R90
WINDOW 0 0 32 VBottom 2
WINDOW 3 32 32 VTop 2
SYMATTR InstName C22
SYMATTR Value 30n
SYMBOL res 2736 1280 R90
WINDOW 0 0 56 VBottom 2
WINDOW 3 32 56 VTop 2
SYMATTR InstName R26
SYMATTR Value 127k
SYMBOL res 2816 1488 R180
WINDOW 0 36 76 Left 2
WINDOW 3 36 40 Left 2
SYMATTR InstName R27
SYMATTR Value 2.47k
SYMBOL res 3008 1232 R180
WINDOW 0 36 76 Left 2
WINDOW 3 36 40 Left 2
SYMATTR InstName R28
SYMATTR Value 242k
SYMBOL res 2528 1312 R0
SYMATTR InstName R29
SYMATTR Value 191k
SYMBOL res 2528 1456 R0
SYMATTR InstName R30
SYMATTR Value 2.61k
SYMBOL res 3232 1328 R0
SYMATTR InstName R31
SYMATTR Value 210k
SYMBOL res 3232 1472 R0
SYMATTR InstName R32
SYMATTR Value 2.87k
SYMBOL voltage -1376 928 R0
WINDOW 3 24 152 Left 2
WINDOW 123 24 124 Left 2
WINDOW 39 0 0 Left 0
SYMATTR Value SINE(0 1m 500)
SYMATTR Value2 AC 1
SYMATTR InstName V4
SYMBOL voltage -1136 944 R0
WINDOW 123 0 0 Left 0
WINDOW 39 0 0 Left 0
SYMATTR InstName V5
SYMATTR Value 3.3
SYMBOL lib\\sym\\OpAmps\\AD8031 -128 800 R0
SYMATTR InstName U5
SYMBOL cap -736 944 R0
SYMATTR InstName C16
SYMATTR Value 10µ
SYMBOL cap -640 944 R0
SYMATTR InstName C23
SYMATTR Value 100n
SYMBOL cap 32 928 R0
SYMATTR InstName C24
SYMATTR Value 100n
SYMBOL cap 144 928 R0
SYMATTR InstName C25
SYMATTR Value 10µ
SYMBOL res -400 704 R0
SYMATTR InstName R15
SYMATTR Value 100k
SYMBOL res -400 912 R0
SYMATTR InstName R16
SYMATTR Value 100k
SYMBOL res -64 656 R90
WINDOW 0 0 56 VBottom 2
WINDOW 3 32 56 VTop 2
SYMATTR InstName R17
SYMATTR Value 4.99k
SYMBOL cap 3536 1360 R0
SYMATTR InstName C26
SYMATTR Value 1µ
SYMBOL res 3648 1344 R0
SYMATTR InstName R18
SYMATTR Value 200k
SYMBOL Comparators\\LT1018 4080 1296 R0
SYMATTR InstName U9
SYMBOL res 3936 1296 R90
WINDOW 0 0 56 VBottom 2
WINDOW 3 32 56 VTop 2
SYMATTR InstName R34
SYMATTR Value 15.2k
SYMBOL res 4144 1440 R90
WINDOW 0 0 56 VBottom 2
WINDOW 3 32 56 VTop 2
SYMATTR InstName R35
SYMATTR Value 1Meg
SYMBOL lib\\sym\\OpAmps\\MAX9638 1744 528 R0
SYMATTR InstName U10
SYMBOL lib\\sym\\OpAmps\\MAX9638 2400 544 R0
SYMATTR InstName U11
SYMBOL cap 1552 288 R90
WINDOW 0 0 32 VBottom 2
WINDOW 3 32 32 VTop 2
SYMATTR InstName C27
SYMATTR Value 1.5n
SYMBOL cap 1552 480 R90
WINDOW 0 0 32 VBottom 2
WINDOW 3 32 32 VTop 2
SYMATTR InstName C28
SYMATTR Value 1.5n
SYMBOL cap 2224 288 R90
WINDOW 0 0 32 VBottom 2
WINDOW 3 32 32 VTop 2
SYMATTR InstName C29
SYMATTR Value 1.5n
SYMBOL cap 2224 496 R90
WINDOW 0 0 32 VBottom 2
WINDOW 3 32 32 VTop 2
SYMATTR InstName C30
SYMATTR Value 1.5n
SYMBOL res 1312 480 R90
WINDOW 0 0 56 VBottom 2
WINDOW 3 32 56 VTop 2
SYMATTR InstName R36
SYMATTR Value 132k
SYMBOL res 2032 496 R90
WINDOW 0 0 56 VBottom 2
WINDOW 3 32 56 VTop 2
SYMATTR InstName R37
SYMATTR Value 70.3k
SYMBOL res 1392 688 R180
WINDOW 0 36 76 Left 2
WINDOW 3 36 40 Left 2
SYMATTR InstName R38
SYMATTR Value 1.15k
SYMBOL res 1680 448 R180
WINDOW 0 36 76 Left 2
WINDOW 3 36 40 Left 2
SYMATTR InstName R39
SYMATTR Value 264k
SYMBOL res 2112 704 R180
WINDOW 0 36 76 Left 2
WINDOW 3 36 40 Left 2
SYMATTR InstName R40
SYMATTR Value 1.6k
SYMBOL res 2304 448 R180
WINDOW 0 36 76 Left 2
WINDOW 3 36 40 Left 2
SYMATTR InstName R41
SYMATTR Value 156k
SYMBOL lib\\sym\\OpAmps\\MAX9638 3104 560 R0
SYMATTR InstName U12
SYMBOL cap 2928 304 R90
WINDOW 0 0 32 VBottom 2
WINDOW 3 32 32 VTop 2
SYMATTR InstName C31
SYMATTR Value 1.5n
SYMBOL cap 2928 512 R90
WINDOW 0 0 32 VBottom 2
WINDOW 3 32 32 VTop 2
SYMATTR InstName C32
SYMATTR Value 1.5n
SYMBOL res 2736 512 R90
WINDOW 0 0 56 VBottom 2
WINDOW 3 32 56 VTop 2
SYMATTR InstName R42
SYMATTR Value 87k
SYMBOL res 2816 720 R180
WINDOW 0 36 76 Left 2
WINDOW 3 36 40 Left 2
SYMATTR InstName R43
SYMATTR Value 1.98k
SYMBOL res 3008 464 R180
WINDOW 0 36 76 Left 2
WINDOW 3 36 40 Left 2
SYMATTR InstName R44
SYMATTR Value 193k
SYMBOL res 2528 560 R0
SYMATTR InstName R45
SYMATTR Value 37.1k
SYMBOL res 2528 704 R0
SYMATTR InstName R46
SYMATTR Value 499
SYMBOL res 3232 576 R0
SYMATTR InstName R47
SYMATTR Value 41.8k
SYMBOL res 3232 720 R0
SYMATTR InstName R48
SYMATTR Value 562
SYMBOL diode 3344 560 R270
WINDOW 0 32 32 VTop 2
WINDOW 3 0 32 VBottom 2
SYMATTR InstName D2
SYMATTR Value RBR2LAM60A
SYMBOL cap 3504 592 R0
SYMATTR InstName C33
SYMATTR Value 1µ
SYMBOL res 3600 576 R0
SYMATTR InstName R49
SYMATTR Value 200k
SYMBOL Comparators\\LT1018 4048 528 R0
SYMATTR InstName U13
SYMBOL res 3904 528 R90
WINDOW 0 0 56 VBottom 2
WINDOW 3 32 56 VTop 2
SYMATTR InstName R52
SYMATTR Value 15.2k
SYMBOL res 4112 672 R90
WINDOW 0 0 56 VBottom 2
WINDOW 3 32 56 VTop 2
SYMATTR InstName R53
SYMATTR Value 1Meg
SYMBOL res -880 720 R0
SYMATTR InstName R54
SYMATTR Value 100k
SYMBOL res -880 928 R0
SYMATTR InstName R55
SYMATTR Value 175k
SYMBOL lib\\sym\\OpAmps\\MAX9638 1040 512 R0
SYMATTR InstName U14
SYMBOL cap 1024 304 R90
WINDOW 0 0 32 VBottom 2
WINDOW 3 32 32 VTop 2
SYMATTR InstName C34
SYMATTR Value 1µ
SYMBOL lib\\sym\\OpAmps\\MAX9638 1040 1280 R0
SYMATTR InstName U15
SYMBOL cap 1024 1072 R90
WINDOW 0 0 32 VBottom 2
WINDOW 3 32 32 VTop 2
SYMATTR InstName C35
SYMATTR Value 1µ
SYMBOL lib\\sym\\OpAmps\\MAX9638 1056 -144 R0
SYMATTR InstName U16
SYMBOL res 1104 -384 R90
WINDOW 0 0 56 VBottom 2
WINDOW 3 32 56 VTop 2
SYMATTR InstName R19
SYMATTR Value 10k
SYMBOL res 832 -192 R90
WINDOW 0 0 56 VBottom 2
WINDOW 3 32 56 VTop 2
SYMATTR InstName R33
SYMATTR Value 10k
SYMBOL cap -160 -304 R90
WINDOW 0 0 32 VBottom 2
WINDOW 3 32 32 VTop 2
SYMATTR InstName C36
SYMATTR Value 1µ
SYMBOL cap 32 -304 R90
WINDOW 0 0 32 VBottom 2
WINDOW 3 32 32 VTop 2
SYMATTR InstName C37
SYMATTR Value 0.1µ
SYMBOL diode 3376 1328 R270
WINDOW 0 32 32 VTop 2
WINDOW 3 0 32 VBottom 2
SYMATTR InstName D1
SYMATTR Value RBR2LAM60A
SYMBOL lib\\sym\\OpAmps\\MAX9638 1744 2080 R0
SYMATTR InstName U17
SYMBOL lib\\sym\\OpAmps\\MAX9638 2400 2096 R0
SYMATTR InstName U18
SYMBOL cap 1552 1840 R90
WINDOW 0 0 32 VBottom 2
WINDOW 3 32 32 VTop 2
SYMATTR InstName C38
SYMATTR Value 10n
SYMBOL cap 1552 2032 R90
WINDOW 0 0 32 VBottom 2
WINDOW 3 32 32 VTop 2
SYMATTR InstName C39
SYMATTR Value 10n
SYMBOL cap 2224 1840 R90
WINDOW 0 0 32 VBottom 2
WINDOW 3 32 32 VTop 2
SYMATTR InstName C40
SYMATTR Value 10n
SYMBOL cap 2224 2048 R90
WINDOW 0 0 32 VBottom 2
WINDOW 3 32 32 VTop 2
SYMATTR InstName C41
SYMATTR Value 10n
SYMBOL res 1312 2032 R90
WINDOW 0 0 56 VBottom 2
WINDOW 3 32 56 VTop 2
SYMATTR InstName R50
SYMATTR Value 127k
SYMBOL res 2032 2048 R90
WINDOW 0 0 56 VBottom 2
WINDOW 3 32 56 VTop 2
SYMATTR InstName R51
SYMATTR Value 42k
SYMBOL res 1392 2240 R180
WINDOW 0 36 76 Left 2
WINDOW 3 36 40 Left 2
SYMATTR InstName R56
SYMATTR Value 6.54k
SYMBOL res 1680 2000 R180
WINDOW 0 36 76 Left 2
WINDOW 3 36 40 Left 2
SYMATTR InstName R57
SYMATTR Value 255k
SYMBOL res 2112 2256 R180
WINDOW 0 36 76 Left 2
WINDOW 3 36 40 Left 2
SYMATTR InstName R58
SYMATTR Value 2.24k
SYMBOL res 2304 2000 R180
WINDOW 0 36 76 Left 2
WINDOW 3 36 40 Left 2
SYMATTR InstName R59
SYMATTR Value 387k
SYMBOL lib\\sym\\OpAmps\\MAX9638 3104 2112 R0
SYMATTR InstName U19
SYMBOL cap 2928 1856 R90
WINDOW 0 0 32 VBottom 2
WINDOW 3 32 32 VTop 2
SYMATTR InstName C42
SYMATTR Value 10n
SYMBOL cap 2928 2064 R90
WINDOW 0 0 32 VBottom 2
WINDOW 3 32 32 VTop 2
SYMATTR InstName C43
SYMATTR Value 10n
SYMBOL res 2736 2064 R90
WINDOW 0 0 56 VBottom 2
WINDOW 3 32 56 VTop 2
SYMATTR InstName R60
SYMATTR Value 80.8k
SYMBOL res 2816 2272 R180
WINDOW 0 36 76 Left 2
WINDOW 3 36 40 Left 2
SYMATTR InstName R61
SYMATTR Value 4.31k
SYMBOL res 3008 2016 R180
WINDOW 0 36 76 Left 2
WINDOW 3 36 40 Left 2
SYMATTR InstName R62
SYMATTR Value 744k
SYMBOL cap 3536 2144 R0
SYMATTR InstName C44
SYMATTR Value 1µ
SYMBOL res 3648 2128 R0
SYMATTR InstName R67
SYMATTR Value 200k
SYMBOL Comparators\\LT1018 4080 2080 R0
SYMATTR InstName U20
SYMBOL res 3936 2080 R90
WINDOW 0 0 56 VBottom 2
WINDOW 3 32 56 VTop 2
SYMATTR InstName R68
SYMATTR Value 15.2k
SYMBOL res 4144 2224 R90
WINDOW 0 0 56 VBottom 2
WINDOW 3 32 56 VTop 2
SYMATTR InstName R69
SYMATTR Value 1Meg
SYMBOL lib\\sym\\OpAmps\\MAX9638 1040 2064 R0
SYMATTR InstName U21
SYMBOL cap 1024 1856 R90
WINDOW 0 0 32 VBottom 2
WINDOW 3 32 32 VTop 2
SYMATTR InstName C45
SYMATTR Value 1µ
SYMBOL diode 3376 2112 R270
WINDOW 0 32 32 VTop 2
WINDOW 3 0 32 VBottom 2
SYMATTR InstName D3
SYMATTR Value RBR2LAM60A
SYMBOL voltage 768 2816 R0
WINDOW 3 24 152 Left 2
WINDOW 123 24 124 Left 2
WINDOW 39 0 0 Left 0
SYMATTR Value SINE(0 1 600)
SYMATTR Value2 AC 1
SYMATTR InstName V1
SYMBOL res -1008 720 R0
SYMATTR InstName R70
SYMATTR Value 80k
SYMBOL res -1008 928 R0
SYMATTR InstName R71
SYMATTR Value 160k
SYMBOL lib\\sym\\OpAmps\\MAX9638 1040 2784 R0
SYMATTR InstName U22
SYMBOL lib\\sym\\OpAmps\\MAX9638 1408 2768 R0
SYMATTR InstName U23
SYMBOL lib\\sym\\OpAmps\\MAX9638 2112 2784 R0
SYMATTR InstName U24
SYMBOL res 1296 2752 R90
WINDOW 0 0 56 VBottom 2
WINDOW 3 32 56 VTop 2
SYMATTR InstName R72
SYMATTR Value 90.4k
SYMBOL res 1904 2736 R90
WINDOW 0 -1 56 VBottom 2
WINDOW 3 32 56 VTop 2
SYMATTR InstName R73
SYMATTR Value 318k
SYMBOL res 1696 2736 R90
WINDOW 0 0 56 VBottom 2
WINDOW 3 32 56 VTop 2
SYMATTR InstName R74
SYMATTR Value 145k
SYMBOL cap 1312 2832 R0
SYMATTR InstName C46
SYMATTR Value 2.2n
SYMBOL cap 1952 2832 R0
SYMATTR InstName C47
SYMATTR Value 430p
SYMBOL cap 2144 2608 R90
WINDOW 0 0 32 VBottom 2
WINDOW 3 32 32 VTop 2
SYMATTR InstName C48
SYMATTR Value 2.2n
SYMBOL voltage 768 3376 R0
WINDOW 3 24 152 Left 2
WINDOW 123 24 124 Left 2
WINDOW 39 0 0 Left 0
SYMATTR Value ""
SYMATTR Value2 AC 1
SYMATTR InstName V2
SYMBOL lib\\sym\\OpAmps\\MAX9638 1040 3344 R0
SYMATTR InstName U25
SYMBOL lib\\sym\\OpAmps\\MAX9638 1408 3328 R0
SYMATTR InstName U26
SYMBOL lib\\sym\\OpAmps\\MAX9638 2112 3344 R0
SYMATTR InstName U27
SYMBOL res 1296 3312 R90
WINDOW 0 0 56 VBottom 2
WINDOW 3 32 56 VTop 2
SYMATTR InstName R63
SYMATTR Value 35.3k
SYMBOL res 1904 3296 R90
WINDOW 0 -1 56 VBottom 2
WINDOW 3 32 56 VTop 2
SYMATTR InstName R64
SYMATTR Value 108k
SYMBOL res 1696 3296 R90
WINDOW 0 0 56 VBottom 2
WINDOW 3 32 56 VTop 2
SYMATTR InstName R65
SYMATTR Value 52.5k
SYMBOL cap 1312 3392 R0
SYMATTR InstName C49
SYMATTR Value 10n
SYMBOL cap 1952 3392 R0
SYMATTR InstName C50
SYMATTR Value 2.2n
SYMBOL cap 2144 3168 R90
WINDOW 0 0 32 VBottom 2
WINDOW 3 32 32 VTop 2
SYMATTR InstName C51
SYMATTR Value 10n
TEXT -480 488 Left 2 !.ac dec 10000 10 1000000
TEXT -472 536 Left 2 ;.tran 50m
TEXT -304 1128 Left 4 ;Source and reference
TEXT 3920 1560 Left 2 ;U9 is TI TLV3201/2 comparator
TEXT 3888 792 Left 2 ;U12 is TI TLV3201/2 comparator
TEXT 1176 880 Left 4 ;6.11 kHz bandpass trigger
TEXT -960 328 Left 4 ;Lowpass amplifier gain stage 1: 32 dB, total: 58.5 dB
TEXT 1184 1632 Left 4 ;240 Hz bandpass trigger
TEXT 592 128 Left 4 ;ADC amplifier
TEXT 3920 2344 Left 2 ;U9 is TI TLV3201/2 comparator
TEXT 1184 2416 Left 4 ;420 Hz bandpass trigger
TEXT 768 2592 Left 4 ;800 Hz anti-aliasing
TEXT 768 3152 Left 4 ;450 Hz anti-aliasing
RECTANGLE Normal 384 1168 -1472 608
RECTANGLE Normal 384 416 -1056 -448
RECTANGLE Normal 4416 944 544 208
RECTANGLE Normal 4416 1696 544 976
RECTANGLE Normal 1376 176 544 -464
RECTANGLE Normal 4416 2480 544 1760
RECTANGLE Normal 2416 3040 672 2528
RECTANGLE Normal 2416 3600 672 3088
